data_1
_audit_creation_method   'vasp2cif'
_cell_length_a    8.214313113733247
_cell_length_b    7.369244
_cell_length_c    8.908923002714356
_cell_angle_alpha    90.0
_cell_angle_beta    124.61422406247601
_cell_angle_gamma    90.0
_symmetry_space_group_name_H-M    'P 1'
loop_
_atom_site_type_symbol
_atom_site_label
_atom_site_symmetry_multiplicity
_atom_site_fract_x
_atom_site_fract_y
_atom_site_fract_z
_atom_site_occupancy
K   K0   1   0.140197000000000   0.115219000000000   0.667008000000000   1.0
K   K1   1   0.140197000000000   0.884781000000000   0.167008000000000   1.0
K   K2   1   0.631609000000000   0.578205000000000   0.167940000000000   1.0
K   K3   1   0.631609000000000   0.421795000000000   0.667940000000000   1.0
Se   Se4   1   0.108358000000000   0.594814000000000   0.825956000000000   1.0
Se   Se5   1   0.108358000000000   0.405186000000000   0.325956000000000   1.0
Se   Se6   1   0.617960000000000   0.903238000000000   0.820427000000000   1.0
Se   Se7   1   0.617960000000000   0.096762000000000   0.320427000000000   1.0
Se   Se8   1   0.172325000000000   0.342341000000000   0.010882000000000   1.0
Se   Se9   1   0.172325000000000   0.657659000000000   0.510882000000000   1.0
Se   Se10   1   0.746823000000000   0.143621000000000   0.026654000000000   1.0
Se   Se11   1   0.746823000000000   0.856379000000000   0.526654000000000   1.0
O   O12   1   0.272431000000000   0.237505000000000   0.466578000000000   1.0
O   O13   1   0.272431000000000   0.762495000000000   0.966578000000000   1.0
O   O14   1   0.748396000000000   0.711381000000000   0.942175000000000   1.0
O   O15   1   0.748396000000000   0.288619000000000   0.442175000000000   1.0